 .Sol file Watershed HRU:83 Subbasin:11 HRU:7 Luse:FRS5 Soil: 11403 Slope: 30-45 2024/5/11 0:00:00 ArcSWAT 2012.10_2.19
 Soil Name: 11403
 Soil Hydrologic Group: B
 Maximum rooting depth(mm) : 1000.00
 Porosity fraction from which anions are excluded: 0.500
 Crack volume potential of soil: 0.500
 Texture 1                : Loam
 Depth                [mm]:      300.00     1000.00
 Bulk Density Moist [g/cc]:        1.45        1.55
 Ave. AW Incl. Rock Frag  :        0.11        0.09
 Ksat. (est.)      [mm/hr]:       10.55        7.83
 Organic Carbon [weight %]:        1.39        0.60
 Clay           [weight %]:       21.00       20.00
 Silt           [weight %]:       37.00       34.00
 Sand           [weight %]:       42.00       46.00
 Rock Fragments   [vol. %]:       19.00       26.00
 Soil Albedo (Moist)      :        0.01        0.01
 Erosion K                :        0.26        0.29
 Salinity (EC, Form 5)    :        0.10        0.10
 Soil pH                  :        5.10        4.90
 Soil CACO3               :        0.00        0.00
                              
