 .Sol file Watershed HRU:182 Subbasin:28 HRU:2 Luse:FRS1 Soil: 11368 Slope: 45-9999 2024/5/11 0:00:00 ArcSWAT 2012.10_2.19
 Soil Name: 11368
 Soil Hydrologic Group: B
 Maximum rooting depth(mm) : 1000.00
 Porosity fraction from which anions are excluded: 0.500
 Crack volume potential of soil: 0.500
 Texture 1                : Clay
 Depth                [mm]:      300.00     1000.00
 Bulk Density Moist [g/cc]:        1.38        1.34
 Ave. AW Incl. Rock Frag  :        0.10        0.09
 Ksat. (est.)      [mm/hr]:        0.75        0.30
 Organic Carbon [weight %]:        1.20        0.59
 Clay           [weight %]:       47.00       53.00
 Silt           [weight %]:       22.00       20.00
 Sand           [weight %]:       31.00       27.00
 Rock Fragments   [vol. %]:       19.00       28.00
 Soil Albedo (Moist)      :        0.01        0.01
 Erosion K                :        0.22        0.25
 Salinity (EC, Form 5)    :        0.10        0.10
 Soil pH                  :        6.50        7.40
 Soil CACO3               :        0.10        4.00
                              
