 .Sol file Watershed HRU:173 Subbasin:27 HRU:4 Luse:FRS3 Soil: 11604 Slope: 0-15 2024/5/11 0:00:00 ArcSWAT 2012.10_2.19
 Soil Name: 11604
 Soil Hydrologic Group: C
 Maximum rooting depth(mm) : 1000.00
 Porosity fraction from which anions are excluded: 0.500
 Crack volume potential of soil: 0.500
 Texture 1                : Silty Loam
 Depth                [mm]:      300.00     1000.00
 Bulk Density Moist [g/cc]:        1.44        1.49
 Ave. AW Incl. Rock Frag  :        0.14        0.13
 Ksat. (est.)      [mm/hr]:        9.04        8.38
 Organic Carbon [weight %]:        1.12        0.82
 Clay           [weight %]:       21.00       21.00
 Silt           [weight %]:       50.00       45.00
 Sand           [weight %]:       29.00       34.00
 Rock Fragments   [vol. %]:       10.00       10.00
 Soil Albedo (Moist)      :        0.01        0.01
 Erosion K                :        0.33        0.33
 Salinity (EC, Form 5)    :        0.30        0.30
 Soil pH                  :        7.80        7.90
 Soil CACO3               :        9.30        9.40
                              
