 .Sol file Watershed HRU:43 Subbasin:4 HRU:9 Luse:FRS3 Soil: 11808 Slope: 0-15 2024/5/11 0:00:00 ArcSWAT 2012.10_2.19
 Soil Name: 11808
 Soil Hydrologic Group: B
 Maximum rooting depth(mm) : 1000.00
 Porosity fraction from which anions are excluded: 0.500
 Crack volume potential of soil: 0.500
 Texture 1                : Clay
 Depth                [mm]:      300.00     1000.00
 Bulk Density Moist [g/cc]:        1.27        1.30
 Ave. AW Incl. Rock Frag  :        0.16        0.11
 Ksat. (est.)      [mm/hr]:        1.33        0.47
 Organic Carbon [weight %]:        1.24        0.45
 Clay           [weight %]:       48.00       56.00
 Silt           [weight %]:       25.00       22.00
 Sand           [weight %]:       27.00       22.00
 Rock Fragments   [vol. %]:        4.00        6.00
 Soil Albedo (Moist)      :        0.01        0.01
 Erosion K                :        0.24        0.27
 Salinity (EC, Form 5)    :        0.10        0.10
 Soil pH                  :        4.80        5.00
 Soil CACO3               :        0.00        0.00
                              
