 .sub file Subbasin: 13 2024/5/11 0:00:00 ArcSWAT 2012.10_2.19
      120.366740    | SUB_KM : Subbasin area [km2]

Climate in subbasin
       24.262263    | LATITUDE : Latitude of subbasin [degrees]
          369.65    | ELEV : Elevation of subbasin [m]
               5    | IRGAGE: precip gage data used in subbasin
               4    | ITGAGE: temp gage data used in subbasin
               4    | ISGAGE: solar radiation gage data used in subbasin
               4    | IHGAGE: relative humidity gage data used in subbasin
               4    | IWGAGE: wind speed gage data used in subbasin
000130000.wgn       | WGNFILE: name of weather generator data file
               1    | FCST_REG: Region number used to assign forecast data to the subbasin
Elevation Bands
| ELEVB: Elevation at center of elevation bands [m]
   0.000   0.000   0.000   0.000   0.000   0.000   0.000   0.000   0.000   0.000
| ELEVB_FR: Fraction of subbasin area within elevation band
   0.000   0.000   0.000   0.000   0.000   0.000   0.000   0.000   0.000   0.000
| SNOEB: Initial snow water content in elevation band [mm]
     0.0     0.0     0.0     0.0     0.0     0.0     0.0     0.0     0.0     0.0
           0.000    | PLAPS : Precipitation lapse rate [mm/km]
           0.000    | TLAPS : Temperature lapse rate [°„C/km]
           0.000    | SNO_SUB : Initial snow water content [mm]
Tributary Channels
           2.901    | CH_L1 : Longest tributary channel length [km]
           0.001    | CH_S1 : Average slope of tributary channel [m/m]
          22.850    | CH_W1 : Average width of tributary channel [m]
           0.000    | CH_K1 : Effective hydraulic conductivity in tributary channel [mm/hr]
           0.014    | CH_N1 : Manning's "n" value for the tributary channels
Impoundments
000130000.pnd       | PNDFILE: name of subbasin impoundment file
Consumptive Water Use
000130000.wus       | WUSFILE: name of subbasin water use file
Climate Change
         330.000    | CO2 : Carbon dioxide concentration [ppmv]
| RFINC:  Climate change monthly rainfall adjustment (January - June)
   0.000   0.000   0.000   0.000   0.000   0.000
| RFINC:  Climate change monthly rainfall adjustment (July - December)
   0.000   0.000   0.000   0.000   0.000   0.000
| TMPINC: Climate change monthly temperature adjustment (January - June)
   0.000   0.000   0.000   0.000   0.000   0.000
| TMPINC: Climate change monthly temperature adjustment (July - December)
   0.000   0.000   0.000   0.000   0.000   0.000
| RADINC: Climate change monthly radiation adjustment (January - June)
   0.000   0.000   0.000   0.000   0.000   0.000
| RADINC: Climate change monthly radiation adjustment (July - December)
   0.000   0.000   0.000   0.000   0.000   0.000
| HUMINC: Climate change monthly humidity adjustment (January - June)
   0.000   0.000   0.000   0.000   0.000   0.000
| HUMINC: Climate change monthly humidity adjustment (July - December)
   0.000   0.000   0.000   0.000   0.000   0.000
| HRU data
               7    | HRUTOT : Total number of HRUs modeled in subbasin

HRU: Depressional Storage/Pothole

Floodplain

HRU: Riparian

HRU: General
000130001.hru000130001.mgt000130001.sol000130001.chm 000130001.gw             000130001.sep
000130002.hru000130002.mgt000130002.sol000130002.chm 000130002.gw             000130002.sep
000130003.hru000130003.mgt000130003.sol000130003.chm 000130003.gw             000130003.sep
000130004.hru000130004.mgt000130004.sol000130004.chm 000130004.gw             000130004.sep
000130005.hru000130005.mgt000130005.sol000130005.chm 000130005.gw             000130005.sep
000130006.hru000130006.mgt000130006.sol000130006.chm 000130006.gw             000130006.sep
000130007.hru000130007.mgt000130007.sol000130007.chm 000130007.gw             000130007.sep
