 .Wgn file Subbasin: 32 STATION NAME:59023 2024/5/11 0:00:00 ArcSWAT 2012.10_2.19
  LATITUDE =  24.70 LONGITUDE = 108.03
  ELEV [m] = 260.20
  RAIN_YRS =  49.00
 14.42 16.35 19.88 25.31 29.03 31.19 32.74 32.88 31.05 27.10 22.17 17.42
  8.43 10.25 13.51 18.21 21.62 24.02 24.99 24.63 22.74 19.06 14.33  9.98
  2.18  2.72  1.88  1.48  0.99  0.89  0.97  1.06  1.20  1.22  1.71  1.71
  1.57  1.98  1.32  1.18  0.86  0.60  0.59  0.60  0.77  1.19  1.29  1.52
  39.5  41.2  60.9 114.8 227.9 293.9 240.0 199.5 106.3  76.3  51.8  30.5
  3.97  4.05  5.01  9.76 16.47 21.57 15.87 13.69 10.52  7.72  6.54  3.72
  6.97  5.08  5.03  4.19  3.51  4.15  3.24  3.56  4.79  5.21  8.34  6.49
  0.25  0.28  0.34  0.37  0.40  0.40  0.32  0.31  0.21  0.16  0.18  0.15
  0.60  0.61  0.65  0.64  0.62  0.67  0.70  0.66  0.56  0.60  0.58  0.53
 12.37 12.33 15.82 16.02 16.41 16.88 16.98 15.49 10.35  9.27  9.49  8.02
  7.44  7.82  9.77 20.56 32.57 42.77 30.24 26.61 19.76 15.30 10.85  6.26
  7.31  8.40  9.67 12.23 14.07 14.30 17.04 17.61 15.80 12.52 10.19  8.72
  4.86  6.52  9.76 14.12 17.30 19.63 20.37 20.11 17.87 14.19 10.12  5.89
  1.24  1.36  1.42  1.39  1.31  1.29  1.39  1.21  1.13  1.10  1.04  1.12
