 .Sol file Watershed HRU:511 Subbasin:80 HRU:2 Luse:FRS5 Soil: 11367 Slope: 45-9999 2024/5/11 0:00:00 ArcSWAT 2012.10_2.19
 Soil Name: 11367
 Soil Hydrologic Group: C
 Maximum rooting depth(mm) :  300.00
 Porosity fraction from which anions are excluded: 0.500
 Crack volume potential of soil: 0.500
 Texture 1                : Loam
 Depth                [mm]:      300.00
 Bulk Density Moist [g/cc]:        1.80
 Ave. AW Incl. Rock Frag  :        0.21
 Ksat. (est.)      [mm/hr]:       27.34
 Organic Carbon [weight %]:        2.13
 Clay           [weight %]:       19.00
 Silt           [weight %]:       44.00
 Sand           [weight %]:       37.00
 Rock Fragments   [vol. %]:       16.00
 Soil Albedo (Moist)      :        0.01
 Erosion K                :        0.26
 Salinity (EC, Form 5)    :        0.10
 Soil pH                  :        7.50
 Soil CACO3               :        6.00
                              
