 .Wgn file Subbasin: 85 STATION NAME:59037 2024/5/11 0:00:00 ArcSWAT 2012.10_2.19
  LATITUDE =  23.93 LONGITUDE = 108.10
  ELEV [m] = 170.80
  RAIN_YRS =  49.00
 15.55 17.16 20.47 25.74 29.56 31.52 32.64 32.93 31.55 28.05 23.40 18.70
  9.81 11.45 14.55 19.12 22.35 24.50 25.29 25.13 23.59 20.25 15.82 11.61
  2.24  2.75  1.91  1.49  0.87  0.83  0.89  1.02  1.10  1.30  1.72  1.69
  1.55  2.12  1.46  1.19  0.75  0.46  0.55  0.56  0.74  1.06  1.19  1.39
  47.4  41.6  71.7 121.0 252.8 365.5 303.4 231.9 111.6  82.5  60.8  38.3
  5.11  4.08  6.26 11.07 18.73 26.97 22.09 16.53 11.91  9.47  7.60  4.97
  8.61  7.08  6.46  6.07  4.25  4.86  4.72  3.88  5.81  6.27  6.78  7.16
  0.24  0.27  0.34  0.38  0.40  0.42  0.37  0.33  0.23  0.16  0.16  0.13
  0.60  0.61  0.65  0.61  0.65  0.71  0.73  0.68  0.54  0.60  0.58  0.58
 12.16 12.29 15.92 15.63 17.02 18.51 19.04 16.45 10.37  9.04  9.02  7.96
  9.30  7.22 11.17 21.82 36.64 53.79 40.58 33.78 23.30 16.29 13.05  8.45
  7.68  8.25  9.38 11.98 15.03 15.91 17.71 18.56 17.68 14.12 11.29  9.56
  7.22  8.60 11.30 14.96 17.91 20.05 20.65 20.48 18.79 15.81 12.10  8.28
  2.75  2.79  2.65  2.50  2.35  2.05  1.98  1.93  2.34  2.69  2.60  2.66
