 .sub file Subbasin: 85 2024/5/11 0:00:00 ArcSWAT 2012.10_2.19
       20.339219    | SUB_KM : Subbasin area [km2]

Climate in subbasin
       24.129303    | LATITUDE : Latitude of subbasin [degrees]
          366.97    | ELEV : Elevation of subbasin [m]
               5    | IRGAGE: precip gage data used in subbasin
               4    | ITGAGE: temp gage data used in subbasin
               4    | ISGAGE: solar radiation gage data used in subbasin
               4    | IHGAGE: relative humidity gage data used in subbasin
               4    | IWGAGE: wind speed gage data used in subbasin
000850000.wgn       | WGNFILE: name of weather generator data file
               1    | FCST_REG: Region number used to assign forecast data to the subbasin
Elevation Bands
| ELEVB: Elevation at center of elevation bands [m]
   0.000   0.000   0.000   0.000   0.000   0.000   0.000   0.000   0.000   0.000
| ELEVB_FR: Fraction of subbasin area within elevation band
   0.000   0.000   0.000   0.000   0.000   0.000   0.000   0.000   0.000   0.000
| SNOEB: Initial snow water content in elevation band [mm]
     0.0     0.0     0.0     0.0     0.0     0.0     0.0     0.0     0.0     0.0
           0.000    | PLAPS : Precipitation lapse rate [mm/km]
           0.000    | TLAPS : Temperature lapse rate [°„C/km]
           0.000    | SNO_SUB : Initial snow water content [mm]
Tributary Channels
           0.416    | CH_L1 : Longest tributary channel length [km]
           0.233    | CH_S1 : Average slope of tributary channel [m/m]
           7.863    | CH_W1 : Average width of tributary channel [m]
           0.000    | CH_K1 : Effective hydraulic conductivity in tributary channel [mm/hr]
           0.014    | CH_N1 : Manning's "n" value for the tributary channels
Impoundments
000850000.pnd       | PNDFILE: name of subbasin impoundment file
Consumptive Water Use
000850000.wus       | WUSFILE: name of subbasin water use file
Climate Change
         330.000    | CO2 : Carbon dioxide concentration [ppmv]
| RFINC:  Climate change monthly rainfall adjustment (January - June)
   0.000   0.000   0.000   0.000   0.000   0.000
| RFINC:  Climate change monthly rainfall adjustment (July - December)
   0.000   0.000   0.000   0.000   0.000   0.000
| TMPINC: Climate change monthly temperature adjustment (January - June)
   0.000   0.000   0.000   0.000   0.000   0.000
| TMPINC: Climate change monthly temperature adjustment (July - December)
   0.000   0.000   0.000   0.000   0.000   0.000
| RADINC: Climate change monthly radiation adjustment (January - June)
   0.000   0.000   0.000   0.000   0.000   0.000
| RADINC: Climate change monthly radiation adjustment (July - December)
   0.000   0.000   0.000   0.000   0.000   0.000
| HUMINC: Climate change monthly humidity adjustment (January - June)
   0.000   0.000   0.000   0.000   0.000   0.000
| HUMINC: Climate change monthly humidity adjustment (July - December)
   0.000   0.000   0.000   0.000   0.000   0.000
| HRU data
              10    | HRUTOT : Total number of HRUs modeled in subbasin

HRU: Depressional Storage/Pothole

Floodplain

HRU: Riparian

HRU: General
000850001.hru000850001.mgt000850001.sol000850001.chm 000850001.gw             000850001.sep
000850002.hru000850002.mgt000850002.sol000850002.chm 000850002.gw             000850002.sep
000850003.hru000850003.mgt000850003.sol000850003.chm 000850003.gw             000850003.sep
000850004.hru000850004.mgt000850004.sol000850004.chm 000850004.gw             000850004.sep
000850005.hru000850005.mgt000850005.sol000850005.chm 000850005.gw             000850005.sep
000850006.hru000850006.mgt000850006.sol000850006.chm 000850006.gw             000850006.sep
000850007.hru000850007.mgt000850007.sol000850007.chm 000850007.gw             000850007.sep
000850008.hru000850008.mgt000850008.sol000850008.chm 000850008.gw             000850008.sep
000850009.hru000850009.mgt000850009.sol000850009.chm 000850009.gw             000850009.sep
000850010.hru000850010.mgt000850010.sol000850010.chm 000850010.gw             000850010.sep
